Circuit: * Extracted by KLayout with SG13G2 LVS runset on : 23/03/2026 03:05

Fatal Error: No analysis request found.
