Circuit: * Extracted by KLayout with SG13G2 LVS runset on : 21/03/2026 01:12

Fatal Error: No analysis request found.
