Circuit: * Extracted by KLayout with SG13G2 LVS runset on : 21/03/2026 16:41

Fatal Error: No analysis request found.
